!- Windows Line endings 

VERSION,
    25.1.0;                   !- Version Identifier

SIMULATIONCONTROL,
    No,                       !- Do Zone Sizing Calculation
    No,                       !- Do System Sizing Calculation
    No,                       !- Do Plant Sizing Calculation
    No,                       !- Run Simulation for Sizing Periods
    Yes,                      !- Run Simulation for Weather File Run Periods
    Yes,                      !- Do HVAC Sizing Simulation for Sizing Periods
    1;                        !- Maximum Number of HVAC Sizing Simulation Passes

BUILDING,
    Office,                   !- Name
    0,                        !- North Axis
    Suburbs,                  !- Terrain
    0.04,                     !- Loads Convergence Tolerance Value
    0.4,                      !- Temperature Convergence Tolerance Value
    FullInteriorAndExterior,    !- Solar Distribution
    25,                       !- Maximum Number of Warmup Days
    6;                        !- Minimum Number of Warmup Days

SITE:LOCATION,
    Beijing_BJ_CHN Design_Conditions,    !- Name
    39.92,                    !- Latitude
    116.46,                   !- Longitude
    8,                        !- Time Zone
    44,                       !- Elevation
    No;                       !- Keep Site Location Information

RUNPERIOD,
    Run Period 1,             !- Name
    1,                        !- Begin Month
    1,                        !- Begin Day of Month
    2024,                     !- Begin Year
    12,                       !- End Month
    31,                       !- End Day of Month
    2024,                     !- End Year
    Monday,                   !- Day of Week for Start Day
    Yes,                      !- Use Weather File Holidays and Special Days
    Yes,                      !- Use Weather File Daylight Saving Period
    No,                       !- Apply Weekend Holiday Rule
    Yes,                      !- Use Weather File Rain Indicators
    Yes,                      !- Use Weather File Snow Indicators
    No,                       !- Treat Weather as Actual
    Hour24;                   !- First Hour Interpolation Starting Values

MATERIAL,
    Concrete_20cm,            !- Name
    MediumRough,              !- Roughness
    0.2,                      !- Thickness
    1.73,                     !- Conductivity
    2300,                     !- Density
    880,                      !- Specific Heat
    0.9,                      !- Thermal Absorptance
    0.7,                      !- Solar Absorptance
    0.7;                      !- Visible Absorptance

MATERIAL,
    Gypsum_1.3cm,             !- Name
    Smooth,                   !- Roughness
    0.0127,                   !- Thickness
    0.16,                     !- Conductivity
    785,                      !- Density
    830,                      !- Specific Heat
    0.9,                      !- Thermal Absorptance
    0.7,                      !- Solar Absorptance
    0.7;                      !- Visible Absorptance

MATERIAL:NOMASS,
    EPS_Insulation,           !- Name
    MediumRough,              !- Roughness
    1.71,                     !- Thermal Resistance
    0.9,                      !- Thermal Absorptance
    0.7,                      !- Solar Absorptance
    0.7;                      !- Visible Absorptance

MATERIAL:AIRGAP,
    Roof_AirGap,              !- Name
    0.18;                     !- Thermal Resistance

WINDOWMATERIAL:SIMPLEGLAZINGSYSTEM,
    SimpleGlazingSystem,      !- Name
    1.8,                      !- UFactor
    0.52,                     !- Solar Heat Gain Coefficient
    0.65;                     !- Visible Transmittance

CONSTRUCTION,
    Exterior_Wall_Const,      !- Name
    Concrete_20cm,            !- Outside Layer
    EPS_Insulation;           !- Layer 2

CONSTRUCTION,
    Interior_Wall_Const,      !- Name
    Gypsum_1.3cm,             !- Outside Layer
    Gypsum_1.3cm;             !- Layer 2

CONSTRUCTION,
    Roof_Const,               !- Name
    Concrete_20cm,            !- Outside Layer
    Roof_AirGap,              !- Layer 2
    EPS_Insulation;           !- Layer 3

CONSTRUCTION,
    Floor_Const,              !- Name
    Concrete_20cm,            !- Outside Layer
    EPS_Insulation;           !- Layer 2

CONSTRUCTION,
    Ceiling_Const,            !- Name
    Gypsum_1.3cm,             !- Outside Layer
    Gypsum_1.3cm;             !- Layer 2

CONSTRUCTION,
    Window_Const,             !- Name
    SimpleGlazingSystem;      !- Outside Layer

GLOBALGEOMETRYRULES,
    UpperLeftCorner,          !- Starting Vertex Position
    Counterclockwise,         !- Vertex Entry Direction
    World,                    !- Coordinate System
    Relative,                 !- Daylighting Reference Point Coordinate System
    Relative;                 !- Rectangular Surface Coordinate System

ZONE,
    Zone_F1,                  !- Name
    0,                        !- Direction of Relative North
    0,                        !- X Origin
    0,                        !- Y Origin
    0,                        !- Z Origin
    1,                        !- Type
    1,                        !- Multiplier
    2.9,                      !- Ceiling Height
    autocalculate,            !- Volume
    500,                      !- Floor Area
    TARP,                     !- Zone Inside Convection Algorithm
    DOE-2,                    !- Zone Outside Convection Algorithm
    Yes;                      !- Part of Total Floor Area

ZONE,
    Zone_F2,                  !- Name
    0,                        !- Direction of Relative North
    0,                        !- X Origin
    0,                        !- Y Origin
    2.9,                      !- Z Origin
    1,                        !- Type
    1,                        !- Multiplier
    2.9,                      !- Ceiling Height
    autocalculate,            !- Volume
    500,                      !- Floor Area
    TARP,                     !- Zone Inside Convection Algorithm
    DOE-2,                    !- Zone Outside Convection Algorithm
    Yes;                      !- Part of Total Floor Area

ZONE,
    Zone_F3,                  !- Name
    0,                        !- Direction of Relative North
    0,                        !- X Origin
    0,                        !- Y Origin
    5.8,                      !- Z Origin
    1,                        !- Type
    1,                        !- Multiplier
    2.9,                      !- Ceiling Height
    autocalculate,            !- Volume
    500,                      !- Floor Area
    TARP,                     !- Zone Inside Convection Algorithm
    DOE-2,                    !- Zone Outside Convection Algorithm
    Yes;                      !- Part of Total Floor Area

ZONE,
    Zone_F4,                  !- Name
    0,                        !- Direction of Relative North
    0,                        !- X Origin
    0,                        !- Y Origin
    8.7,                      !- Z Origin
    1,                        !- Type
    1,                        !- Multiplier
    2.9,                      !- Ceiling Height
    autocalculate,            !- Volume
    500,                      !- Floor Area
    TARP,                     !- Zone Inside Convection Algorithm
    DOE-2,                    !- Zone Outside Convection Algorithm
    Yes;                      !- Part of Total Floor Area

ZONE,
    Zone_F5,                  !- Name
    0,                        !- Direction of Relative North
    0,                        !- X Origin
    0,                        !- Y Origin
    11.6,                     !- Z Origin
    1,                        !- Type
    1,                        !- Multiplier
    2.9,                      !- Ceiling Height
    autocalculate,            !- Volume
    500,                      !- Floor Area
    TARP,                     !- Zone Inside Convection Algorithm
    DOE-2,                    !- Zone Outside Convection Algorithm
    Yes;                      !- Part of Total Floor Area

ZONE,
    Zone_F6,                  !- Name
    0,                        !- Direction of Relative North
    0,                        !- X Origin
    0,                        !- Y Origin
    14.5,                     !- Z Origin
    1,                        !- Type
    1,                        !- Multiplier
    2.9,                      !- Ceiling Height
    autocalculate,            !- Volume
    500,                      !- Floor Area
    TARP,                     !- Zone Inside Convection Algorithm
    DOE-2,                    !- Zone Outside Convection Algorithm
    Yes;                      !- Part of Total Floor Area

BUILDINGSURFACE:DETAILED,
    Zone_F1_Floor,            !- Name
    Floor,                    !- Surface Type
    Floor_Const,              !- Construction Name
    Zone_F1,                  !- Zone Name
    ,                         !- Space Name
    Ground,                   !- Outside Boundary Condition
    ,                         !- Outside Boundary Condition Object
    NoSun,                    !- Sun Exposure
    NoWind,                   !- Wind Exposure
    autocalculate,            !- View Factor to Ground
    autocalculate,            !- Number of Vertices
    0,                        !- Vertex 1 Xcoordinate
    0,                        !- Vertex 1 Ycoordinate
    0,                        !- Vertex 1 Zcoordinate
    0,                        !- Vertex 2 Xcoordinate
    50,                       !- Vertex 2 Ycoordinate
    0,                        !- Vertex 2 Zcoordinate
    10,                       !- Vertex 3 Xcoordinate
    50,                       !- Vertex 3 Ycoordinate
    0,                        !- Vertex 3 Zcoordinate
    10,                       !- Vertex 4 Xcoordinate
    0,                        !- Vertex 4 Ycoordinate
    0;                        !- Vertex 4 Zcoordinate

BUILDINGSURFACE:DETAILED,
    Zone_F1_Ceiling,          !- Name
    Ceiling,                  !- Surface Type
    Ceiling_Const,            !- Construction Name
    Zone_F1,                  !- Zone Name
    ,                         !- Space Name
    Surface,                  !- Outside Boundary Condition
    Zone_F2_Floor,            !- Outside Boundary Condition Object
    NoSun,                    !- Sun Exposure
    NoWind,                   !- Wind Exposure
    autocalculate,            !- View Factor to Ground
    autocalculate,            !- Number of Vertices
    0,                        !- Vertex 1 Xcoordinate
    50,                       !- Vertex 1 Ycoordinate
    2.9,                      !- Vertex 1 Zcoordinate
    0,                        !- Vertex 2 Xcoordinate
    0,                        !- Vertex 2 Ycoordinate
    2.9,                      !- Vertex 2 Zcoordinate
    10,                       !- Vertex 3 Xcoordinate
    0,                        !- Vertex 3 Ycoordinate
    2.9,                      !- Vertex 3 Zcoordinate
    10,                       !- Vertex 4 Xcoordinate
    50,                       !- Vertex 4 Ycoordinate
    2.9;                      !- Vertex 4 Zcoordinate

BUILDINGSURFACE:DETAILED,
    Zone_F1_Wall_North,       !- Name
    Wall,                     !- Surface Type
    Exterior_Wall_Const,      !- Construction Name
    Zone_F1,                  !- Zone Name
    ,                         !- Space Name
    Outdoors,                 !- Outside Boundary Condition
    ,                         !- Outside Boundary Condition Object
    SunExposed,               !- Sun Exposure
    WindExposed,              !- Wind Exposure
    autocalculate,            !- View Factor to Ground
    autocalculate,            !- Number of Vertices
    10,                       !- Vertex 1 Xcoordinate
    50,                       !- Vertex 1 Ycoordinate
    2.9,                      !- Vertex 1 Zcoordinate
    10,                       !- Vertex 2 Xcoordinate
    50,                       !- Vertex 2 Ycoordinate
    0,                        !- Vertex 2 Zcoordinate
    0,                        !- Vertex 3 Xcoordinate
    50,                       !- Vertex 3 Ycoordinate
    0,                        !- Vertex 3 Zcoordinate
    0,                        !- Vertex 4 Xcoordinate
    50,                       !- Vertex 4 Ycoordinate
    2.9;                      !- Vertex 4 Zcoordinate

BUILDINGSURFACE:DETAILED,
    Zone_F1_Wall_South,       !- Name
    Wall,                     !- Surface Type
    Exterior_Wall_Const,      !- Construction Name
    Zone_F1,                  !- Zone Name
    ,                         !- Space Name
    Outdoors,                 !- Outside Boundary Condition
    ,                         !- Outside Boundary Condition Object
    SunExposed,               !- Sun Exposure
    WindExposed,              !- Wind Exposure
    autocalculate,            !- View Factor to Ground
    autocalculate,            !- Number of Vertices
    0,                        !- Vertex 1 Xcoordinate
    0,                        !- Vertex 1 Ycoordinate
    2.9,                      !- Vertex 1 Zcoordinate
    0,                        !- Vertex 2 Xcoordinate
    0,                        !- Vertex 2 Ycoordinate
    0,                        !- Vertex 2 Zcoordinate
    10,                       !- Vertex 3 Xcoordinate
    0,                        !- Vertex 3 Ycoordinate
    0,                        !- Vertex 3 Zcoordinate
    10,                       !- Vertex 4 Xcoordinate
    0,                        !- Vertex 4 Ycoordinate
    2.9;                      !- Vertex 4 Zcoordinate

BUILDINGSURFACE:DETAILED,
    Zone_F1_Wall_East,        !- Name
    Wall,                     !- Surface Type
    Exterior_Wall_Const,      !- Construction Name
    Zone_F1,                  !- Zone Name
    ,                         !- Space Name
    Outdoors,                 !- Outside Boundary Condition
    ,                         !- Outside Boundary Condition Object
    SunExposed,               !- Sun Exposure
    WindExposed,              !- Wind Exposure
    autocalculate,            !- View Factor to Ground
    autocalculate,            !- Number of Vertices
    10,                       !- Vertex 1 Xcoordinate
    0,                        !- Vertex 1 Ycoordinate
    2.9,                      !- Vertex 1 Zcoordinate
    10,                       !- Vertex 2 Xcoordinate
    0,                        !- Vertex 2 Ycoordinate
    0,                        !- Vertex 2 Zcoordinate
    10,                       !- Vertex 3 Xcoordinate
    50,                       !- Vertex 3 Ycoordinate
    0,                        !- Vertex 3 Zcoordinate
    10,                       !- Vertex 4 Xcoordinate
    50,                       !- Vertex 4 Ycoordinate
    2.9;                      !- Vertex 4 Zcoordinate

BUILDINGSURFACE:DETAILED,
    Zone_F1_Wall_West,        !- Name
    Wall,                     !- Surface Type
    Exterior_Wall_Const,      !- Construction Name
    Zone_F1,                  !- Zone Name
    ,                         !- Space Name
    Outdoors,                 !- Outside Boundary Condition
    ,                         !- Outside Boundary Condition Object
    SunExposed,               !- Sun Exposure
    WindExposed,              !- Wind Exposure
    autocalculate,            !- View Factor to Ground
    autocalculate,            !- Number of Vertices
    0,                        !- Vertex 1 Xcoordinate
    50,                       !- Vertex 1 Ycoordinate
    2.9,                      !- Vertex 1 Zcoordinate
    0,                        !- Vertex 2 Xcoordinate
    50,                       !- Vertex 2 Ycoordinate
    0,                        !- Vertex 2 Zcoordinate
    0,                        !- Vertex 3 Xcoordinate
    0,                        !- Vertex 3 Ycoordinate
    0,                        !- Vertex 3 Zcoordinate
    0,                        !- Vertex 4 Xcoordinate
    0,                        !- Vertex 4 Ycoordinate
    2.9;                      !- Vertex 4 Zcoordinate

BUILDINGSURFACE:DETAILED,
    Zone_F2_Floor,            !- Name
    Floor,                    !- Surface Type
    Ceiling_Const,            !- Construction Name
    Zone_F2,                  !- Zone Name
    ,                         !- Space Name
    Surface,                  !- Outside Boundary Condition
    Zone_F1_Ceiling,          !- Outside Boundary Condition Object
    NoSun,                    !- Sun Exposure
    NoWind,                   !- Wind Exposure
    autocalculate,            !- View Factor to Ground
    autocalculate,            !- Number of Vertices
    0,                        !- Vertex 1 Xcoordinate
    0,                        !- Vertex 1 Ycoordinate
    2.9,                      !- Vertex 1 Zcoordinate
    0,                        !- Vertex 2 Xcoordinate
    50,                       !- Vertex 2 Ycoordinate
    2.9,                      !- Vertex 2 Zcoordinate
    10,                       !- Vertex 3 Xcoordinate
    50,                       !- Vertex 3 Ycoordinate
    2.9,                      !- Vertex 3 Zcoordinate
    10,                       !- Vertex 4 Xcoordinate
    0,                        !- Vertex 4 Ycoordinate
    2.9;                      !- Vertex 4 Zcoordinate

BUILDINGSURFACE:DETAILED,
    Zone_F2_Ceiling,          !- Name
    Ceiling,                  !- Surface Type
    Ceiling_Const,            !- Construction Name
    Zone_F2,                  !- Zone Name
    ,                         !- Space Name
    Surface,                  !- Outside Boundary Condition
    Zone_F3_Floor,            !- Outside Boundary Condition Object
    NoSun,                    !- Sun Exposure
    NoWind,                   !- Wind Exposure
    autocalculate,            !- View Factor to Ground
    autocalculate,            !- Number of Vertices
    0,                        !- Vertex 1 Xcoordinate
    50,                       !- Vertex 1 Ycoordinate
    5.8,                      !- Vertex 1 Zcoordinate
    0,                        !- Vertex 2 Xcoordinate
    0,                        !- Vertex 2 Ycoordinate
    5.8,                      !- Vertex 2 Zcoordinate
    10,                       !- Vertex 3 Xcoordinate
    0,                        !- Vertex 3 Ycoordinate
    5.8,                      !- Vertex 3 Zcoordinate
    10,                       !- Vertex 4 Xcoordinate
    50,                       !- Vertex 4 Ycoordinate
    5.8;                      !- Vertex 4 Zcoordinate

BUILDINGSURFACE:DETAILED,
    Zone_F2_Wall_North,       !- Name
    Wall,                     !- Surface Type
    Exterior_Wall_Const,      !- Construction Name
    Zone_F2,                  !- Zone Name
    ,                         !- Space Name
    Outdoors,                 !- Outside Boundary Condition
    ,                         !- Outside Boundary Condition Object
    SunExposed,               !- Sun Exposure
    WindExposed,              !- Wind Exposure
    autocalculate,            !- View Factor to Ground
    autocalculate,            !- Number of Vertices
    10,                       !- Vertex 1 Xcoordinate
    50,                       !- Vertex 1 Ycoordinate
    5.8,                      !- Vertex 1 Zcoordinate
    10,                       !- Vertex 2 Xcoordinate
    50,                       !- Vertex 2 Ycoordinate
    2.9,                      !- Vertex 2 Zcoordinate
    0,                        !- Vertex 3 Xcoordinate
    50,                       !- Vertex 3 Ycoordinate
    2.9,                      !- Vertex 3 Zcoordinate
    0,                        !- Vertex 4 Xcoordinate
    50,                       !- Vertex 4 Ycoordinate
    5.8;                      !- Vertex 4 Zcoordinate

BUILDINGSURFACE:DETAILED,
    Zone_F2_Wall_South,       !- Name
    Wall,                     !- Surface Type
    Exterior_Wall_Const,      !- Construction Name
    Zone_F2,                  !- Zone Name
    ,                         !- Space Name
    Outdoors,                 !- Outside Boundary Condition
    ,                         !- Outside Boundary Condition Object
    SunExposed,               !- Sun Exposure
    WindExposed,              !- Wind Exposure
    autocalculate,            !- View Factor to Ground
    autocalculate,            !- Number of Vertices
    0,                        !- Vertex 1 Xcoordinate
    0,                        !- Vertex 1 Ycoordinate
    5.8,                      !- Vertex 1 Zcoordinate
    0,                        !- Vertex 2 Xcoordinate
    0,                        !- Vertex 2 Ycoordinate
    2.9,                      !- Vertex 2 Zcoordinate
    10,                       !- Vertex 3 Xcoordinate
    0,                        !- Vertex 3 Ycoordinate
    2.9,                      !- Vertex 3 Zcoordinate
    10,                       !- Vertex 4 Xcoordinate
    0,                        !- Vertex 4 Ycoordinate
    5.8;                      !- Vertex 4 Zcoordinate

BUILDINGSURFACE:DETAILED,
    Zone_F2_Wall_East,        !- Name
    Wall,                     !- Surface Type
    Exterior_Wall_Const,      !- Construction Name
    Zone_F2,                  !- Zone Name
    ,                         !- Space Name
    Outdoors,                 !- Outside Boundary Condition
    ,                         !- Outside Boundary Condition Object
    SunExposed,               !- Sun Exposure
    WindExposed,              !- Wind Exposure
    autocalculate,            !- View Factor to Ground
    autocalculate,            !- Number of Vertices
    10,                       !- Vertex 1 Xcoordinate
    0,                        !- Vertex 1 Ycoordinate
    5.8,                      !- Vertex 1 Zcoordinate
    10,                       !- Vertex 2 Xcoordinate
    0,                        !- Vertex 2 Ycoordinate
    2.9,                      !- Vertex 2 Zcoordinate
    10,                       !- Vertex 3 Xcoordinate
    50,                       !- Vertex 3 Ycoordinate
    2.9,                      !- Vertex 3 Zcoordinate
    10,                       !- Vertex 4 Xcoordinate
    50,                       !- Vertex 4 Ycoordinate
    5.8;                      !- Vertex 4 Zcoordinate

BUILDINGSURFACE:DETAILED,
    Zone_F2_Wall_West,        !- Name
    Wall,                     !- Surface Type
    Exterior_Wall_Const,      !- Construction Name
    Zone_F2,                  !- Zone Name
    ,                         !- Space Name
    Outdoors,                 !- Outside Boundary Condition
    ,                         !- Outside Boundary Condition Object
    SunExposed,               !- Sun Exposure
    WindExposed,              !- Wind Exposure
    autocalculate,            !- View Factor to Ground
    autocalculate,            !- Number of Vertices
    0,                        !- Vertex 1 Xcoordinate
    50,                       !- Vertex 1 Ycoordinate
    5.8,                      !- Vertex 1 Zcoordinate
    0,                        !- Vertex 2 Xcoordinate
    50,                       !- Vertex 2 Ycoordinate
    2.9,                      !- Vertex 2 Zcoordinate
    0,                        !- Vertex 3 Xcoordinate
    0,                        !- Vertex 3 Ycoordinate
    2.9,                      !- Vertex 3 Zcoordinate
    0,                        !- Vertex 4 Xcoordinate
    0,                        !- Vertex 4 Ycoordinate
    5.8;                      !- Vertex 4 Zcoordinate

BUILDINGSURFACE:DETAILED,
    Zone_F3_Floor,            !- Name
    Floor,                    !- Surface Type
    Ceiling_Const,            !- Construction Name
    Zone_F3,                  !- Zone Name
    ,                         !- Space Name
    Surface,                  !- Outside Boundary Condition
    Zone_F2_Ceiling,          !- Outside Boundary Condition Object
    NoSun,                    !- Sun Exposure
    NoWind,                   !- Wind Exposure
    autocalculate,            !- View Factor to Ground
    autocalculate,            !- Number of Vertices
    0,                        !- Vertex 1 Xcoordinate
    0,                        !- Vertex 1 Ycoordinate
    5.8,                      !- Vertex 1 Zcoordinate
    0,                        !- Vertex 2 Xcoordinate
    50,                       !- Vertex 2 Ycoordinate
    5.8,                      !- Vertex 2 Zcoordinate
    10,                       !- Vertex 3 Xcoordinate
    50,                       !- Vertex 3 Ycoordinate
    5.8,                      !- Vertex 3 Zcoordinate
    10,                       !- Vertex 4 Xcoordinate
    0,                        !- Vertex 4 Ycoordinate
    5.8;                      !- Vertex 4 Zcoordinate

BUILDINGSURFACE:DETAILED,
    Zone_F3_Ceiling,          !- Name
    Ceiling,                  !- Surface Type
    Ceiling_Const,            !- Construction Name
    Zone_F3,                  !- Zone Name
    ,                         !- Space Name
    Surface,                  !- Outside Boundary Condition
    Zone_F4_Floor,            !- Outside Boundary Condition Object
    NoSun,                    !- Sun Exposure
    NoWind,                   !- Wind Exposure
    autocalculate,            !- View Factor to Ground
    autocalculate,            !- Number of Vertices
    0,                        !- Vertex 1 Xcoordinate
    50,                       !- Vertex 1 Ycoordinate
    8.7,                      !- Vertex 1 Zcoordinate
    0,                        !- Vertex 2 Xcoordinate
    0,                        !- Vertex 2 Ycoordinate
    8.7,                      !- Vertex 2 Zcoordinate
    10,                       !- Vertex 3 Xcoordinate
    0,                        !- Vertex 3 Ycoordinate
    8.7,                      !- Vertex 3 Zcoordinate
    10,                       !- Vertex 4 Xcoordinate
    50,                       !- Vertex 4 Ycoordinate
    8.7;                      !- Vertex 4 Zcoordinate

BUILDINGSURFACE:DETAILED,
    Zone_F3_Wall_North,       !- Name
    Wall,                     !- Surface Type
    Exterior_Wall_Const,      !- Construction Name
    Zone_F3,                  !- Zone Name
    ,                         !- Space Name
    Outdoors,                 !- Outside Boundary Condition
    ,                         !- Outside Boundary Condition Object
    SunExposed,               !- Sun Exposure
    WindExposed,              !- Wind Exposure
    autocalculate,            !- View Factor to Ground
    autocalculate,            !- Number of Vertices
    10,                       !- Vertex 1 Xcoordinate
    50,                       !- Vertex 1 Ycoordinate
    8.7,                      !- Vertex 1 Zcoordinate
    10,                       !- Vertex 2 Xcoordinate
    50,                       !- Vertex 2 Ycoordinate
    5.8,                      !- Vertex 2 Zcoordinate
    0,                        !- Vertex 3 Xcoordinate
    50,                       !- Vertex 3 Ycoordinate
    5.8,                      !- Vertex 3 Zcoordinate
    0,                        !- Vertex 4 Xcoordinate
    50,                       !- Vertex 4 Ycoordinate
    8.7;                      !- Vertex 4 Zcoordinate

BUILDINGSURFACE:DETAILED,
    Zone_F3_Wall_South,       !- Name
    Wall,                     !- Surface Type
    Exterior_Wall_Const,      !- Construction Name
    Zone_F3,                  !- Zone Name
    ,                         !- Space Name
    Outdoors,                 !- Outside Boundary Condition
    ,                         !- Outside Boundary Condition Object
    SunExposed,               !- Sun Exposure
    WindExposed,              !- Wind Exposure
    autocalculate,            !- View Factor to Ground
    autocalculate,            !- Number of Vertices
    0,                        !- Vertex 1 Xcoordinate
    0,                        !- Vertex 1 Ycoordinate
    8.7,                      !- Vertex 1 Zcoordinate
    0,                        !- Vertex 2 Xcoordinate
    0,                        !- Vertex 2 Ycoordinate
    5.8,                      !- Vertex 2 Zcoordinate
    10,                       !- Vertex 3 Xcoordinate
    0,                        !- Vertex 3 Ycoordinate
    5.8,                      !- Vertex 3 Zcoordinate
    10,                       !- Vertex 4 Xcoordinate
    0,                        !- Vertex 4 Ycoordinate
    8.7;                      !- Vertex 4 Zcoordinate

BUILDINGSURFACE:DETAILED,
    Zone_F3_Wall_East,        !- Name
    Wall,                     !- Surface Type
    Exterior_Wall_Const,      !- Construction Name
    Zone_F3,                  !- Zone Name
    ,                         !- Space Name
    Outdoors,                 !- Outside Boundary Condition
    ,                         !- Outside Boundary Condition Object
    SunExposed,               !- Sun Exposure
    WindExposed,              !- Wind Exposure
    autocalculate,            !- View Factor to Ground
    autocalculate,            !- Number of Vertices
    10,                       !- Vertex 1 Xcoordinate
    0,                        !- Vertex 1 Ycoordinate
    8.7,                      !- Vertex 1 Zcoordinate
    10,                       !- Vertex 2 Xcoordinate
    0,                        !- Vertex 2 Ycoordinate
    5.8,                      !- Vertex 2 Zcoordinate
    10,                       !- Vertex 3 Xcoordinate
    50,                       !- Vertex 3 Ycoordinate
    5.8,                      !- Vertex 3 Zcoordinate
    10,                       !- Vertex 4 Xcoordinate
    50,                       !- Vertex 4 Ycoordinate
    8.7;                      !- Vertex 4 Zcoordinate

BUILDINGSURFACE:DETAILED,
    Zone_F3_Wall_West,        !- Name
    Wall,                     !- Surface Type
    Exterior_Wall_Const,      !- Construction Name
    Zone_F3,                  !- Zone Name
    ,                         !- Space Name
    Outdoors,                 !- Outside Boundary Condition
    ,                         !- Outside Boundary Condition Object
    SunExposed,               !- Sun Exposure
    WindExposed,              !- Wind Exposure