!- Windows Line endings 

VERSION,
    25.1.0;                   !- Version Identifier

SIMULATIONCONTROL,
    No,                       !- Do Zone Sizing Calculation
    No,                       !- Do System Sizing Calculation
    No,                       !- Do Plant Sizing Calculation
    No,                       !- Run Simulation for Sizing Periods
    Yes,                      !- Run Simulation for Weather File Run Periods
    Yes,                      !- Do HVAC Sizing Simulation for Sizing Periods
    1;                        !- Maximum Number of HVAC Sizing Simulation Passes

BUILDING,
    ShenzhenResidentialBuilding,    !- Name
    0,                        !- North Axis
    Suburbs,                  !- Terrain
    0.04,                     !- Loads Convergence Tolerance Value
    0.4,                      !- Temperature Convergence Tolerance Value
    FullInteriorAndExterior,    !- Solar Distribution
    25,                       !- Maximum Number of Warmup Days
    6;                        !- Minimum Number of Warmup Days

TIMESTEP,
    4;                        !- Number of Timesteps per Hour

SITE:LOCATION,
    Shenzhen_CHN,             !- Name
    22.54,                    !- Latitude
    114,                      !- Longitude
    8,                        !- Time Zone
    4,                        !- Elevation
    No;                       !- Keep Site Location Information

RUNPERIOD,
    Annual_Run,               !- Name
    1,                        !- Begin Month
    1,                        !- Begin Day of Month
    2024,                     !- Begin Year
    12,                       !- End Month
    31,                       !- End Day of Month
    2024,                     !- End Year
    Monday,                   !- Day of Week for Start Day
    Yes,                      !- Use Weather File Holidays and Special Days
    Yes,                      !- Use Weather File Daylight Saving Period
    No,                       !- Apply Weekend Holiday Rule
    Yes,                      !- Use Weather File Rain Indicators
    Yes,                      !- Use Weather File Snow Indicators
    No,                       !- Treat Weather as Actual
    Hour24;                   !- First Hour Interpolation Starting Values

SCHEDULETYPELIMITS,
    On_Off,                   !- Name
    0,                        !- Lower Limit Value
    1,                        !- Upper Limit Value
    DISCRETE,                 !- Numeric Type
    Dimensionless;            !- Unit Type

SCHEDULETYPELIMITS,
    Fraction,                 !- Name
    0,                        !- Lower Limit Value
    1,                        !- Upper Limit Value
    CONTINUOUS,               !- Numeric Type
    Dimensionless;            !- Unit Type

SCHEDULETYPELIMITS,
    Temperature,              !- Name
    ,                         !- Lower Limit Value
    ,                         !- Upper Limit Value
    CONTINUOUS,               !- Numeric Type
    Temperature;              !- Unit Type

SCHEDULETYPELIMITS,
    Any_Number,               !- Name
    ,                         !- Lower Limit Value
    ,                         !- Upper Limit Value
    CONTINUOUS,               !- Numeric Type
    Dimensionless;            !- Unit Type

SCHEDULE:COMPACT,
    Always_On,                !- Name
    On_Off,                   !- Schedule Type Limits Name
    Through: 12/31,           !- Field 1
    For: AllDays,             !- Field 2
    Until: 24:00,             !- Field 3
    1.0;                      !- Field 4

SCHEDULE:COMPACT,
    Occupancy_Schedule,       !- Name
    Fraction,                 !- Schedule Type Limits Name
    Through: 12/31,           !- Field 1
    For: Weekdays,            !- Field 2
    Until: 08:00,             !- Field 3
    0.1,                      !- Field 4
    Until: 22:00,             !- Field 5
    0.8,                      !- Field 6
    Until: 24:00,             !- Field 7
    0.1,                      !- Field 8
    For: Saturday,            !- Field 9
    Until: 08:00,             !- Field 10
    0.1,                      !- Field 11
    Until: 22:00,             !- Field 12
    0.7,                      !- Field 13
    Until: 24:00,             !- Field 14
    0.1,                      !- Field 15
    For: AllOtherDays,        !- Field 16
    Until: 24:00,             !- Field 17
    0.1;                      !- Field 18

SCHEDULE:COMPACT,
    Lighting_Schedule,        !- Name
    Fraction,                 !- Schedule Type Limits Name
    Through: 12/31,           !- Field 1
    For: Weekdays,            !- Field 2
    Until: 08:00,             !- Field 3
    0.1,                      !- Field 4
    Until: 22:00,             !- Field 5
    0.7,                      !- Field 6
    Until: 24:00,             !- Field 7
    0.1,                      !- Field 8
    For: Saturday,            !- Field 9
    Until: 08:00,             !- Field 10
    0.1,                      !- Field 11
    Until: 22:00,             !- Field 12
    0.6,                      !- Field 13
    Until: 24:00,             !- Field 14
    0.1,                      !- Field 15
    For: AllOtherDays,        !- Field 16
    Until: 24:00,             !- Field 17
    0.1;                      !- Field 18

SCHEDULE:COMPACT,
    Equipment_Schedule,       !- Name
    Fraction,                 !- Schedule Type Limits Name
    Through: 12/31,           !- Field 1
    For: Weekdays,            !- Field 2
    Until: 08:00,             !- Field 3
    0.2,                      !- Field 4
    Until: 22:00,             !- Field 5
    0.6,                      !- Field 6
    Until: 24:00,             !- Field 7
    0.2,                      !- Field 8
    For: Saturday,            !- Field 9
    Until: 08:00,             !- Field 10
    0.2,                      !- Field 11
    Until: 22:00,             !- Field 12
    0.5,                      !- Field 13
    Until: 24:00,             !- Field 14
    0.2,                      !- Field 15
    For: AllOtherDays,        !- Field 16
    Until: 24:00,             !- Field 17
    0.2;                      !- Field 18

SCHEDULE:COMPACT,
    Activity_Schedule,        !- Name
    Any_Number,               !- Schedule Type Limits Name
    Through: 12/31,           !- Field 1
    For: AllDays,             !- Field 2
    Until: 24:00,             !- Field 3
    120.0;                    !- Field 4

SCHEDULE:COMPACT,
    HVAC_Availability,        !- Name
    On_Off,                   !- Schedule Type Limits Name
    Through: 12/31,           !- Field 1
    For: Weekdays,            !- Field 2
    Until: 06:00,             !- Field 3
    0.0,                      !- Field 4
    Until: 23:00,             !- Field 5
    1.0,                      !- Field 6
    Until: 24:00,             !- Field 7
    0.0,                      !- Field 8
    For: Saturday,            !- Field 9
    Until: 06:00,             !- Field 10
    0.0,                      !- Field 11
    Until: 23:00,             !- Field 12
    1.0,                      !- Field 13
    Until: 24:00,             !- Field 14
    0.0,                      !- Field 15
    For: AllOtherDays,        !- Field 16
    Until: 24:00,             !- Field 17
    0.0;                      !- Field 18

SCHEDULE:COMPACT,
    Heating_Setpoint,         !- Name
    Temperature,              !- Schedule Type Limits Name
    Through: 12/31,           !- Field 1
    For: Weekdays,            !- Field 2
    Until: 08:00,             !- Field 3
    16.0,                     !- Field 4
    Until: 22:00,             !- Field 5
    20.0,                     !- Field 6
    Until: 24:00,             !- Field 7
    16.0,                     !- Field 8
    For: AllOtherDays,        !- Field 9
    Until: 24:00,             !- Field 10
    16.0;                     !- Field 11

SCHEDULE:COMPACT,
    Cooling_Setpoint,         !- Name
    Temperature,              !- Schedule Type Limits Name
    Through: 12/31,           !- Field 1
    For: Weekdays,            !- Field 2
    Until: 08:00,             !- Field 3
    30.0,                     !- Field 4
    Until: 22:00,             !- Field 5
    26.0,                     !- Field 6
    Until: 24:00,             !- Field 7
    30.0,                     !- Field 8
    For: AllOtherDays,        !- Field 9
    Until: 24:00,             !- Field 10
    30.0;                     !- Field 11

MATERIAL,
    Concrete_200mm,           !- Name
    MediumRough,              !- Roughness
    0.2,                      !- Thickness
    1.73,                     !- Conductivity
    2300,                     !- Density
    880,                      !- Specific Heat
    0.9,                      !- Thermal Absorptance
    0.7,                      !- Solar Absorptance
    0.7;                      !- Visible Absorptance

MATERIAL:NOMASS,
    EPS_Insulation,           !- Name
    MediumRough,              !- Roughness
    0.71,                     !- Thermal Resistance
    0.9,                      !- Thermal Absorptance
    0.7,                      !- Solar Absorptance
    0.7;                      !- Visible Absorptance

MATERIAL:NOMASS,
    Roof_EPS_Insulation,      !- Name
    MediumRough,              !- Roughness
    1.2,                      !- Thermal Resistance
    0.9,                      !- Thermal Absorptance
    0.7,                      !- Solar Absorptance
    0.7;                      !- Visible Absorptance

MATERIAL:NOMASS,
    Floor_EPS_Insulation,     !- Name
    MediumRough,              !- Roughness
    0.96,                     !- Thermal Resistance
    0.9,                      !- Thermal Absorptance
    0.7,                      !- Solar Absorptance
    0.7;                      !- Visible Absorptance

MATERIAL:AIRGAP,
    Roof_AirGap,              !- Name
    0.18;                     !- Thermal Resistance

WINDOWMATERIAL:SIMPLEGLAZINGSYSTEM,
    SimpleGlazing,            !- Name
    2.7,                      !- UFactor
    0.30,                     !- Solar Heat Gain Coefficient
    0.72;                     !- Visible Transmittance

CONSTRUCTION,
    Ext_Wall_Const,           !- Name
    Concrete_200mm,           !- Outside Layer
    EPS_Insulation;           !- Layer 2

CONSTRUCTION,
    Roof_Const,               !- Name
    Concrete_200mm,           !- Outside Layer
    Roof_AirGap,              !- Layer 2
    Roof_EPS_Insulation;      !- Layer 3

CONSTRUCTION,
    Ground_Floor_Const,       !- Name
    Concrete_200mm,           !- Outside Layer
    Floor_EPS_Insulation;     !- Layer 2

CONSTRUCTION,
    Interior_Floor_Const,     !- Name
    Concrete_200mm;           !- Outside Layer

CONSTRUCTION,
    Window_Const,             !- Name
    SimpleGlazing;            !- Outside Layer

GLOBALGEOMETRYRULES,
    UpperLeftCorner,          !- Starting Vertex Position
    Counterclockwise,         !- Vertex Entry Direction
    World,                    !- Coordinate System
    Relative,                 !- Daylighting Reference Point Coordinate System
    Relative;                 !- Rectangular Surface Coordinate System

ZONE,
    Zone_F1,                  !- Name
    0,                        !- Direction of Relative North
    0,                        !- X Origin
    0,                        !- Y Origin
    0,                        !- Z Origin
    1,                        !- Type
    1,                        !- Multiplier
    autocalculate,            !- Ceiling Height
    autocalculate,            !- Volume
    autocalculate,            !- Floor Area
    TARP,                     !- Zone Inside Convection Algorithm
    DOE-2,                    !- Zone Outside Convection Algorithm
    Yes;                      !- Part of Total Floor Area

ZONE,
    Zone_F2,                  !- Name
    0,                        !- Direction of Relative North
    0,                        !- X Origin
    0,                        !- Y Origin
    0,                        !- Z Origin
    1,                        !- Type
    1,                        !- Multiplier
    autocalculate,            !- Ceiling Height
    autocalculate,            !- Volume
    autocalculate,            !- Floor Area
    TARP,                     !- Zone Inside Convection Algorithm
    DOE-2,                    !- Zone Outside Convection Algorithm
    Yes;                      !- Part of Total Floor Area

ZONE,
    Zone_F3,                  !- Name
    0,                        !- Direction of Relative North
    0,                        !- X Origin
    0,                        !- Y Origin
    0,                        !- Z Origin
    1,                        !- Type
    1,                        !- Multiplier
    autocalculate,            !- Ceiling Height
    autocalculate,            !- Volume
    autocalculate,            !- Floor Area
    TARP,                     !- Zone Inside Convection Algorithm
    DOE-2,                    !- Zone Outside Convection Algorithm
    Yes;                      !- Part of Total Floor Area

BUILDINGSURFACE:DETAILED,
    Zone_F1_Floor,            !- Name
    Floor,                    !- Surface Type
    Ground_Floor_Const,       !- Construction Name
    Zone_F1,                  !- Zone Name
    ,                         !- Space Name
    Ground,                   !- Outside Boundary Condition
    ,                         !- Outside Boundary Condition Object
    NoSun,                    !- Sun Exposure
    NoWind,                   !- Wind Exposure
    autocalculate,            !- View Factor to Ground
    autocalculate,            !- Number of Vertices
    0,                        !- Vertex 1 Xcoordinate
    0,                        !- Vertex 1 Ycoordinate
    0,                        !- Vertex 1 Zcoordinate
    0,                        !- Vertex 2 Xcoordinate
    12,                       !- Vertex 2 Ycoordinate
    0,                        !- Vertex 2 Zcoordinate
    12,                       !- Vertex 3 Xcoordinate
    12,                       !- Vertex 3 Ycoordinate
    0,                        !- Vertex 3 Zcoordinate
    12,                       !- Vertex 4 Xcoordinate
    0,                        !- Vertex 4 Ycoordinate
    0;                        !- Vertex 4 Zcoordinate

BUILDINGSURFACE:DETAILED,
    Zone_F1_Ceiling,          !- Name
    Ceiling,                  !- Surface Type
    Interior_Floor_Const,     !- Construction Name
    Zone_F1,                  !- Zone Name
    ,                         !- Space Name
    Surface,                  !- Outside Boundary Condition
    Zone_F2_Floor,            !- Outside Boundary Condition Object
    NoSun,                    !- Sun Exposure
    NoWind,                   !- Wind Exposure
    autocalculate,            !- View Factor to Ground
    autocalculate,            !- Number of Vertices
    0,                        !- Vertex 1 Xcoordinate
    12,                       !- Vertex 1 Ycoordinate
    3,                        !- Vertex 1 Zcoordinate
    0,                        !- Vertex 2 Xcoordinate
    0,                        !- Vertex 2 Ycoordinate
    3,                        !- Vertex 2 Zcoordinate
    12,                       !- Vertex 3 Xcoordinate
    0,                        !- Vertex 3 Ycoordinate
    3,                        !- Vertex 3 Zcoordinate
    12,                       !- Vertex 4 Xcoordinate
    12,                       !- Vertex 4 Ycoordinate
    3;                        !- Vertex 4 Zcoordinate

BUILDINGSURFACE:DETAILED,
    Zone_F1_Wall_South,       !- Name
    Wall,                     !- Surface Type
    Ext_Wall_Const,           !- Construction Name
    Zone_F1,                  !- Zone Name
    ,                         !- Space Name
    Outdoors,                 !- Outside Boundary Condition
    ,                         !- Outside Boundary Condition Object
    SunExposed,               !- Sun Exposure
    WindExposed,              !- Wind Exposure
    autocalculate,            !- View Factor to Ground
    autocalculate,            !- Number of Vertices
    0,                        !- Vertex 1 Xcoordinate
    0,                        !- Vertex 1 Ycoordinate
    3,                        !- Vertex 1 Zcoordinate
    0,                        !- Vertex 2 Xcoordinate
    0,                        !- Vertex 2 Ycoordinate
    0,                        !- Vertex 2 Zcoordinate
    12,                       !- Vertex 3 Xcoordinate
    0,                        !- Vertex 3 Ycoordinate
    0,                        !- Vertex 3 Zcoordinate
    12,                       !- Vertex 4 Xcoordinate
    0,                        !- Vertex 4 Ycoordinate
    3;                        !- Vertex 4 Zcoordinate

BUILDINGSURFACE:DETAILED,
    Zone_F1_Wall_North,       !- Name
    Wall,                     !- Surface Type
    Ext_Wall_Const,           !- Construction Name
    Zone_F1,                  !- Zone Name
    ,                         !- Space Name
    Outdoors,                 !- Outside Boundary Condition
    ,                         !- Outside Boundary Condition Object
    SunExposed,               !- Sun Exposure
    WindExposed,              !- Wind Exposure
    autocalculate,            !- View Factor to Ground
    autocalculate,            !- Number of Vertices
    12,                       !- Vertex 1 Xcoordinate
    12,                       !- Vertex 1 Ycoordinate
    3,                        !- Vertex 1 Zcoordinate
    12,                       !- Vertex 2 Xcoordinate
    12,                       !- Vertex 2 Ycoordinate
    0,                        !- Vertex 2 Zcoordinate
    0,                        !- Vertex 3 Xcoordinate
    12,                       !- Vertex 3 Ycoordinate
    0,                        !- Vertex 3 Zcoordinate
    0,                        !- Vertex 4 Xcoordinate
    12,                       !- Vertex 4 Ycoordinate
    3;                        !- Vertex 4 Zcoordinate

BUILDINGSURFACE:DETAILED,
    Zone_F1_Wall_East,        !- Name
    Wall,                     !- Surface Type
    Ext_Wall_Const,           !- Construction Name
    Zone_F1,                  !- Zone Name
    ,                         !- Space Name
    Outdoors,                 !- Outside Boundary Condition
    ,                         !- Outside Boundary Condition Object
    SunExposed,               !- Sun Exposure
    WindExposed,              !- Wind Exposure
    autocalculate,            !- View Factor to Ground
    autocalculate,            !- Number of Vertices
    12,                       !- Vertex 1 Xcoordinate
    0,                        !- Vertex 1 Ycoordinate
    3,                        !- Vertex 1 Zcoordinate
    12,                       !- Vertex 2 Xcoordinate
    0,                        !- Vertex 2 Ycoordinate
    0,                        !- Vertex 2 Zcoordinate
    12,                       !- Vertex 3 Xcoordinate
    12,                       !- Vertex 3 Ycoordinate
    0,                        !- Vertex 3 Zcoordinate
    12,                       !- Vertex 4 Xcoordinate
    12,                       !- Vertex 4 Ycoordinate
    3;                        !- Vertex 4 Zcoordinate

BUILDINGSURFACE:DETAILED,
    Zone_F1_Wall_West,        !- Name
    Wall,                     !- Surface Type
    Ext_Wall_Const,           !- Construction Name
    Zone_F1,                  !- Zone Name
    ,                         !- Space Name
    Outdoors,                 !- Outside Boundary Condition
    ,                         !- Outside Boundary Condition Object
    SunExposed,               !- Sun Exposure
    WindExposed,              !- Wind Exposure
    autocalculate,            !- View Factor to Ground
    autocalculate,            !- Number of Vertices
    0,                        !- Vertex 1 Xcoordinate
    12,                       !- Vertex 1 Ycoordinate
    3,                        !- Vertex 1 Zcoordinate
    0,                        !- Vertex 2 Xcoordinate
    12,                       !- Vertex 2 Ycoordinate
    0,                        !- Vertex 2 Zcoordinate
    0,                        !- Vertex 3 Xcoordinate
    0,                        !- Vertex 3 Ycoordinate
    0,                        !- Vertex 3 Zcoordinate
    0,                        !- Vertex 4 Xcoordinate
    0,                        !- Vertex 4 Ycoordinate
    3;                        !- Vertex 4 Zcoordinate

BUILDINGSURFACE:DETAILED,
    Zone_F2_Floor,            !- Name
    Floor,                    !- Surface Type
    Interior_Floor_Const,     !- Construction Name
    Zone_F2,                  !- Zone Name
    ,                         !- Space Name
    Surface,                  !- Outside Boundary Condition
    Zone_F1_Ceiling,          !- Outside Boundary Condition Object
    NoSun,                    !- Sun Exposure
    NoWind,                   !- Wind Exposure
    autocalculate,            !- View Factor to Ground
    autocalculate,            !- Number of Vertices
    0,                        !- Vertex 1 Xcoordinate
    0,                        !- Vertex 1 Ycoordinate
    3,                        !- Vertex 1 Zcoordinate
    0,                        !- Vertex 2 Xcoordinate
    12,                       !- Vertex 2 Ycoordinate
    3,                        !- Vertex 2 Zcoordinate
    12,                       !- Vertex 3 Xcoordinate
    12,                       !- Vertex 3 Ycoordinate
    3,                        !- Vertex 3 Zcoordinate
    12,                       !- Vertex 4 Xcoordinate
    0,                        !- Vertex 4 Ycoordinate
    3;                        !- Vertex 4 Zcoordinate

BUILDINGSURFACE:DETAILED,
    Zone_F2_Ceiling,          !- Name
    Ceiling,                  !- Surface Type
    Interior_Floor_Const,     !- Construction Name
    Zone_F2,                  !- Zone Name
    ,                         !- Space Name
    Surface,                  !- Outside Boundary Condition
    Zone_F3_Floor,            !- Outside Boundary Condition Object
    NoSun,                    !- Sun Exposure
    NoWind,                   !- Wind Exposure
    autocalculate,            !- View Factor to Ground
    autocalculate,            !- Number of Vertices
    0,                        !- Vertex 1 Xcoordinate
    12,                       !- Vertex 1 Ycoordinate
    6,                        !- Vertex 1 Zcoordinate
    0,                        !- Vertex 2 Xcoordinate
    0,                        !- Vertex 2 Ycoordinate
    6,                        !- Vertex 2 Zcoordinate
    12,                       !- Vertex 3 Xcoordinate
    0,                        !- Vertex 3 Ycoordinate
    6,                        !- Vertex 3 Zcoordinate
    12,                       !- Vertex 4 Xcoordinate
    12,                       !- Vertex 4 Ycoordinate
    6;                        !- Vertex 4 Zcoordinate

BUILDINGSURFACE:DETAILED,
    Zone_F2_Wall_South,       !- Name
    Wall,                     !- Surface Type
    Ext_Wall_Const,           !- Construction Name
    Zone_F2,                  !- Zone Name
    ,                         !- Space Name
    Outdoors,                 !- Outside Boundary Condition
    ,                         !- Outside Boundary Condition Object
    SunExposed,               !- Sun Exposure
    WindExposed,              !- Wind Exposure
    autocalculate,            !- View Factor to Ground
    autocalculate,            !- Number of Vertices
    0,                        !- Vertex 1 Xcoordinate
    0,                        !- Vertex 1 Ycoordinate
    6,                        !- Vertex 1 Zcoordinate
    0,                        !- Vertex 2 Xcoordinate
    0,                        !- Vertex 2 Ycoordinate
    3,                        !- Vertex 2 Zcoordinate
    12,                       !- Vertex 3 Xcoordinate
    0,                        !- Vertex 3 Ycoordinate
    3,                        !- Vertex 3 Zcoordinate
    12,                       !- Vertex 4 Xcoordinate
    0,                        !- Vertex 4 Ycoordinate
    6;                        !- Vertex 4 Zcoordinate

BUILDINGSURFACE:DETAILED,
    Zone_F2_Wall_North,       !- Name
    Wall,                     !- Surface Type
    Ext_Wall_Const,           !- Construction Name
    Zone_F2,                  !- Zone Name
    ,                         !- Space Name
    Outdoors,                 !- Outside Boundary Condition
    ,                         !- Outside Boundary Condition Object
    SunExposed,               !- Sun Exposure
    WindExposed,              !- Wind Exposure
    autocalculate,            !- View Factor to Ground
    autocalculate,            !- Number of Vertices
    12,                       !- Vertex 1 Xcoordinate
    12,                       !- Vertex 1 Ycoordinate
    6,                        !- Vertex 1 Zcoordinate
    12,                       !- Vertex 2 Xcoordinate
    12,                       !- Vertex 2 Ycoordinate
    3,                        !- Vertex 2 Zcoordinate
    0,                        !- Vertex 3 Xcoordinate
    12,                       !- Vertex 3 Ycoordinate
    3,                        !- Vertex 3 Zcoordinate
    0,                        !- Vertex 4 Xcoordinate
    12,                       !- Vertex 4 Ycoordinate
    6;                        !- Vertex 4 Zcoordinate

BUILDINGSURFACE:DETAILED,
    Zone_F2_Wall_East,        !- Name
    Wall,                     !- Surface Type
    Ext_Wall_Const,           !- Construction Name
    Zone_F2,                  !- Zone Name
    ,                         !- Space Name
    Outdoors,                 !- Outside Boundary Condition
    ,                         !- Outside Boundary Condition Object
    SunExposed,               !- Sun Exposure
    WindExposed,              !- Wind Exposure
    autocalculate,            !- View Factor to Ground
    autocalculate,            !- Number of Vertices
    12,                       !- Vertex 1 Xcoordinate
    0,                        !- Vertex 1 Ycoordinate
    6,                        !- Vertex 1 Zcoordinate
    12,                       !- Vertex 2 Xcoordinate
    0,                        !- Vertex 2 Ycoordinate
    3,                        !- Vertex 2 Zcoordinate
    12,                       !- Vertex 3 Xcoordinate
    12,                       !- Vertex 3 Ycoordinate
    3,                        !- Vertex 3 Zcoordinate
    12,                       !- Vertex 4 Xcoordinate
    12,                       !- Vertex 4 Ycoordinate
    6;                        !- Vertex 4 Zcoordinate

BUILDINGSURFACE:DETAILED,
    Zone_F2_Wall_West,        !- Name
    Wall,                     !- Surface Type
    Ext_Wall_Const,           !- Construction Name
    Zone_F2,                  !- Zone Name
    ,                         !- Space Name
    Outdoors,                 !- Outside Boundary Condition
    ,                         !- Outside Boundary Condition Object
    SunExposed,               !- Sun Exposure
    WindExposed,              !- Wind Exposure
    autocalculate,            !- View Factor to Ground
    autocalculate,            !- Number of Vertices
    0,                        !- Vertex 1 Xcoordinate
    12,                       !- Vertex 1 Ycoordinate
    6,                        !- Vertex 1 Zcoordinate
    0,                        !- Vertex 2 Xcoordinate
    12,                       !- Vertex 2 Ycoordinate
    3,                        !- Vertex 2 Zcoordinate
    0,                        !- Vertex 3 Xcoordinate
    0,                        !- Vertex 3 Ycoordinate
    3,                        !- Vertex 3 Zcoordinate
    0,                        !- Vertex 4 Xcoordinate
    0,                        !- Vertex 4 Ycoordinate
    6;                        !- Vertex 4 Zcoordinate

BUILDINGSURFACE:DETAILED,
    Zone_F3_Floor,            !- Name
    Floor,                    !- Surface Type
    Interior_Floor_Const,     !- Construction Name
    Zone_F3,                  !- Zone Name
    ,                         !- Space Name
    Surface,                  !- Outside Boundary Condition
    Zone_F2_Ceiling,          !- Outside Boundary Condition Object
    NoSun,                    !- Sun Exposure
    NoWind,                   !- Wind Exposure
    autocalculate,            !- View Factor to Ground
    autocalculate,            !- Number of Vertices
    0,                        !- Vertex 1 Xcoordinate
    0,                        !- Vertex 1 Ycoordinate
    6,                        !- Vertex 1 Zcoordinate
    0,                        !- Vertex 2 Xcoordinate
    12,                       !- Vertex 2 Ycoordinate
    6,                        !- Vertex 2 Zcoordinate
    12,                       !- Vertex 3 Xcoordinate
    12,                       !- Vertex 3 Ycoordinate
    6,                        !- Vertex 3 Zcoordinate
    12,                       !- Vertex 4 Xcoordinate
    0,                        !- Vertex 4 Ycoordinate
    6;                        !- Vertex 4 Zcoordinate

BUILDINGSURFACE:DETAILED,
    Zone_F3_Roof,             !- Name
    Roof,                     !- Surface Type
    Roof_Const,               !- Construction Name
    Zone_F3,                  !- Zone Name
    ,                         !- Space Name
    Outdoors,                 !- Outside Boundary Condition
    ,                         !- Outside Boundary Condition Object
    SunExposed,               !- Sun Exposure
    WindExposed,              !- Wind Exposure
    autocalculate,            !- View Factor to Ground
    autocalculate,            !- Number of Vertices
    0,                        !- Vertex 1 Xcoordinate
    12,                       !- Vertex 1 Ycoordinate
    9,                        !- Vertex 1 Zcoordinate
    0,                        !- Vertex 2 Xcoordinate
    0,                        !- Vertex 2 Ycoordinate
    9,                        !- Vertex 2 Zcoordinate
    12,                       !- Vertex 3 Xcoordinate
    0,                        !- Vertex 3 Ycoordinate
    9,                        !- Vertex 3 Zcoordinate